data_Untitled

_cell_angle_alpha	90
_cell_angle_beta	90
_cell_angle_gamma	90
_cell_length_a	3.86
_cell_length_b	3.86
_cell_length_c	3.18

loop_
_symmetry_equiv_pos_as_xyz
x,y,z
-x,-y,z
-y,x,z
y,-x,z
-x,y,-z
x,-y,-z
y,x,-z
-y,-x,-z
-x,-y,-z
x,y,-z
y,-x,-z
-y,x,-z
x,-y,z
-x,y,z
-y,-x,z
y,x,z

loop_
_atom_site_type_symbol
_atom_site_label
_atom_site_fract_x
_atom_site_fract_y
_atom_site_fract_z
Ca Ca 0.5 0.5 0.5
Cu Cu 0.0000 0.0000 0.0000
O O 0.5 0.0000 0.0000
